35
Coordinates from ORCA-job base_opt02
  H   3.87883612786333      1.50746758955236     -3.17018670183178
  O   3.44354528583273      1.73380562971105     -2.34418366795052
  C   3.75278402085662      0.73497441598391     -1.37573454457010
  H   3.39551850661217     -0.24356750544189     -1.70005004004801
  H   4.83088493938100      0.68031783888371     -1.20165873183581
  C   3.04823712504879      1.12697137740762     -0.08640607440327
  H   3.24302979712032      0.33640709037090      0.64703170789628
  C   3.60328773654365      2.42628058925371      0.42030059529099
  C   2.86347395428702      3.44542879085486      0.86804208048172
  H   3.33623532336852      4.36834403395380      1.17992816467258
  C   1.37084456831067      3.36662269675546      0.95041622787078
  H   1.02086799383788      3.81583181372243      1.88088113481563
  C   0.88832500737713      1.92088221619329      0.87702311393400
  H   -0.19915688996495      1.91120185030690      0.77874958315127
  H   1.14830651793509      1.40958581567966      1.80631805956561
  N   0.76600188654922      4.16196271341065     -0.12560459895412
  C   1.28948585799599      4.46493789864103     -1.38657903843266
  H   2.26250522253896      4.09848661546039     -1.69781794200227
  N   0.46252236322336      5.18820832632651     -2.08050418553549
  C   -0.65299091000257      5.38387485680407     -1.27114166008934
  C   -1.90440447352807      6.12187727587799     -1.51194575034551
  O   -2.28736157770442      6.74458883121131     -2.47437065534668
  N   -2.74523126582107      6.02382684172198     -0.34722341407724
  H   -3.63486696103211      6.50080684682322     -0.41238627678030
  C   -2.42757259197803      5.34181543744796      0.82024301430910
  N   -3.38075193506096      5.37414406307212      1.81380858347308
  H   -4.24366220157354      5.88093440764568      1.71225679521075
  H   -3.17808502130273      4.89950452516623      2.67917256246331
  N   -1.32124811235727      4.69550367782020      1.01496944378565
  C   -0.46331195676112      4.74710257653988     -0.06231059189131
  C   1.54323222759063      1.20293678522145     -0.28746193601854
  H   1.34094907367006      1.74675813132320     -1.21317247971087
  O   1.09107122607645     -0.14444937503060     -0.40744872138958
  H   0.13771798731844     -0.13043794845004     -0.53631317394933
  H   4.68240904498883      2.53491779694388      0.39365433696307
